REMARK  8 active torsions:
REMARK  status: ('A' for Active; 'I' for Inactive)
REMARK    1  A    between atoms: O_1  and  C_39 
REMARK    2  A    between atoms: N_3  and  C_10 
REMARK    3  A    between atoms: C_8  and  C_11 
REMARK    4  A    between atoms: C_10  and  C_17 
REMARK    5  A    between atoms: C_11  and  C_18 
REMARK    6  A    between atoms: C_12  and  C_16 
REMARK    7  A    between atoms: C_26  and  C_31 
REMARK    8  A    between atoms: C_34  and  C_39 
ROOT
HETATM    1  N   UNL     1      -0.042   2.546  -0.755  1.00  0.00    -0.329 N 
HETATM    2  N   UNL     1      -0.501   3.862   0.977  1.00  0.00    -0.233 NA
HETATM    3  C   UNL     1      -1.161   2.008  -0.173  1.00  0.00     0.066 A 
HETATM    4  C   UNL     1       0.313   3.652  -0.033  1.00  0.00     0.107 A 
HETATM    5  C   UNL     1      -1.428   2.847   0.906  1.00  0.00     0.091 A 
HETATM    6  C   UNL     1      -3.034   0.635   0.344  1.00  0.00     0.013 A 
HETATM    7  C   UNL     1      -1.939   0.893  -0.487  1.00  0.00     0.047 A 
HETATM    8  C   UNL     1      -2.532   2.572   1.730  1.00  0.00    -0.030 A 
HETATM    9  C   UNL     1      -3.327   1.458   1.433  1.00  0.00     0.024 A 
HETATM   10  C   UNL     1      -2.886   3.423   2.906  1.00  0.00     0.050 C 
ENDROOT
BRANCH   1  11
HETATM   11  C   UNL     1       0.637   2.034  -1.923  1.00  0.00     0.169 C 
BRANCH  11  12
HETATM   12  C   UNL     1       1.706   1.043  -1.547  1.00  0.00    -0.040 A 
HETATM   13  C   UNL     1       1.386  -0.305  -1.450  1.00  0.00     0.010 A 
HETATM   14  C   UNL     1       2.376  -1.222  -1.101  1.00  0.00     0.013 A 
HETATM   15  C   UNL     1       3.677  -0.784  -0.852  1.00  0.00    -0.025 A 
HETATM   16  C   UNL     1       3.987   0.572  -0.951  1.00  0.00     0.013 A 
HETATM   17  C   UNL     1       2.997   1.490  -1.301  1.00  0.00     0.010 A 
BRANCH  15  18
HETATM   18  C   UNL     1       4.705  -1.736  -0.490  1.00  0.00    -0.009 A 
HETATM   19  C   UNL     1       4.950  -2.068   0.845  1.00  0.00     0.048 A 
HETATM   20  C   UNL     1       5.948  -2.989   1.164  1.00  0.00     0.019 A 
HETATM   21  C   UNL     1       6.702  -3.581   0.151  1.00  0.00     0.001 A 
HETATM   22  C   UNL     1       6.458  -3.251  -1.182  1.00  0.00     0.001 A 
HETATM   23  C   UNL     1       5.461  -2.330  -1.502  1.00  0.00     0.013 A 
BRANCH  19  24
HETATM   24  C   UNL     1       4.184  -1.474   1.934  1.00  0.00     0.177 C 
HETATM   25  O   UNL     1       3.013  -1.095   1.857  1.00  0.00    -0.646 OA
BRANCH  24  26
HETATM   26  O   UNL     1       4.908  -1.376   3.081  1.00  0.00    -0.773 OA
HETATM   27  H   UNL     1       4.386  -0.977   3.809  1.00  0.00     0.167 HD
ENDBRANCH  24  26
ENDBRANCH  19  24
ENDBRANCH  15  18
ENDBRANCH  11  12
ENDBRANCH   1  11
BRANCH   4  28
HETATM   28  C   UNL     1       1.484   4.480  -0.388  1.00  0.00     0.078 C 
BRANCH  28  29
HETATM   29  C   UNL     1       1.177   5.990  -0.340  1.00  0.00     0.003 C 
HETATM   30  C   UNL     1       0.094   6.395  -1.327  1.00  0.00     0.005 C 
ENDBRANCH  28  29
ENDBRANCH   4  28
BRANCH   6  31
HETATM   31  C   UNL     1      -3.876  -0.505   0.067  1.00  0.00     0.141 A 
HETATM   32  N   UNL     1      -3.649  -1.747   0.595  1.00  0.00    -0.333 N 
HETATM   33  C   UNL     1      -4.629  -2.586   0.130  1.00  0.00     0.064 A 
HETATM   34  C   UNL     1      -2.572  -2.121   1.485  1.00  0.00     0.158 C 
HETATM   35  C   UNL     1      -5.422  -1.778  -0.680  1.00  0.00     0.086 A 
HETATM   36  C   UNL     1      -4.883  -3.942   0.343  1.00  0.00     0.032 A 
HETATM   37  N   UNL     1      -4.939  -0.489  -0.707  1.00  0.00    -0.228 NA
HETATM   38  C   UNL     1      -6.537  -2.338  -1.325  1.00  0.00     0.034 A 
HETATM   39  C   UNL     1      -6.811  -3.697  -1.126  1.00  0.00     0.002 A 
HETATM   40  C   UNL     1      -5.997  -4.483  -0.306  1.00  0.00     0.002 A 
ENDBRANCH   6  31
TORSDOF 8
